<?xml version="1.0" encoding="UTF-8"?>

<!-- generated on 2024-11-28 10:57:14.278184 by randomTrips.py v1_21_0+1012-56f51359a8c
<configuration>
    <net-file value="osm.net.xml.gz"/>
    <additional-files value="osm_stops.add.xml,osm_pt.rou.xml"/>
    <output-trip-file value="osm.pedestrian.trips.xml"/>
    <route-file value="osm.pedestrian.rou.xml"/>
    <persontrips value="True"/>
    <prefix value="ped"/>
    <trip-attributes value="modes=&quot;public&quot;"/>
    <vehicle-class value="pedestrian"/>
    <fringe-factor value="1"/>
    <period value="0.8"/>
</configuration>
-->

<!-- generated on 2024-11-28 10:57:03 by Eclipse SUMO duarouter Version v1_21_0+1000-2a7a7de367c
<duarouterConfiguration xmlns:xsi="http://www.w3.org/2001/XMLSchema-instance" xsi:noNamespaceSchemaLocation="http://sumo.dlr.de/xsd/duarouterConfiguration.xsd">

    <input>
        <net-file value="osm.net.xml.gz"/>
        <additional-files value="osm_stops.add.xml,osm_pt.rou.xml"/>
        <route-files value="osm.pedestrian.trips.xml"/>
    </input>

    <output>
        <output-file value="osm.pedestrian.rou.xml"/>
        <alternatives-output value="NUL"/>
    </output>

    <time>
        <begin value="0"/>
        <end value="3600.0"/>
    </time>

    <report>
        <no-warnings value="true"/>
        <ignore-errors value="true"/>
        <no-step-log value="true"/>
    </report>

</duarouterConfiguration>
-->

<routes xmlns:xsi="http://www.w3.org/2001/XMLSchema-instance" xsi:noNamespaceSchemaLocation="http://sumo.dlr.de/xsd/routes_file.xsd">
    <vType id="ped_pedestrian" vClass="pedestrian"/>
    <person id="ped0" type="ped_pedestrian" depart="0.00">
        <walk edges="327664774#2 543273840 543273841 543273842 543273843#0 543273844 543273845 543273846#1 543273847 511175446#0 327664791#1 299911659#1" busStop="54143135"/> <!-- Nordhoffstraße -->
        <ride busStop="54143083" lines="1:2" intended="pt_tram_1:2.0" depart="565.00"/> <!-- Lincolnsiedlung -->
        <walk edges="597760644#1 222336041#2" busStop="1780723613"/> <!-- Lincolnsiedlung -->
        <ride busStop="2313104473" lines="464:0" intended="pt_bus_464:0.1" depart="763.00"/> <!-- Dammwiese -->
        <walk edges="222114077#5 222114077#7 611113418#0 611113418#1 30253920#0 30253920#1 30253920#2 118782210#0 118782210#1 118782210#2 -118782210#2"/>
    </person>
    <person id="ped1" type="ped_pedestrian" depart="0.80">
        <walk edges="-537581634 -537581627#1 123046064#7 278491962#11 278491962#10" busStop="4393385966"/> <!-- Gewerbegebiet Waller See (West) -->
        <ride busStop="4112383489" lines="484:1" intended="pt_bus_484:1.0" depart="554.00"/> <!-- Benzstraße -->
        <walk edges="166445410#0 166445409#1 511308675 511308694#0" busStop="343692301"/> <!-- Daimlerstraße -->
        <ride busStop="367019569" lines="484:1" intended="pt_bus_484:1.0" depart="1551.00"/> <!-- Hansestraße Ost -->
        <walk edges="85272780#3 594982247#0 594982246 594982243#0 594982243#2 542548616#1 327664755#0 -327664755#1 -415882500 -70456258#1 287486771#1 -287486771#0 -53026051 -4304460#6 -4304460#5 -4304460#4 -4304460#3 -4304460#1 -4304460#0 901269206#0 901269206#1 4726782#0 4726782#1 4726782#3 -405563795#1 -405563794#1 -405563794#0 405563793#2 -405563793#2"/>
    </person>
    <person id="ped2" type="ped_pedestrian" depart="1.60">
        <walk edges="43104736 -43154548#2 25858947#0 -25287000#2 -559199904 -222084468#13 -222084468#12 -222084468#11 -222084468#10 -222084468#9 -222084468#8 -222084468#7 -222084468#6 -222084468#5 -222084468#4 -222084468#3 -222084468#2 222084468#1 222084468#0 -4764512#9 -4764512#8 -4764512#7 -4764512#6 -4764512#5 -4764512#4 -4764512#3 -4764512#2" busStop="-269321182"/> <!-- Christian-Pommer-Straße -->
        <ride busStop="4112383489" lines="484:2" intended="pt_bus_484:2.1" depart="1282.00"/> <!-- Benzstraße -->
        <walk edges="166445410#0 166445409#1 511308675 511308694#0 -166445415#0 166445416#12 -36892278#0 36892278#1"/>
    </person>
    <person id="ped3" type="ped_pedestrian" depart="2.40">
        <walk edges="70573853#2 -70573853#1 70573853#0 -24982514#1 -24982514#0 24787107 -24982513#2 -24982513#1 -24982513#0 -24982512#2 -24982512#1 -24982512#0 24787109#17 611101998#0 611101998#1 -24823334 31000261#0 31000261#1 31000261#2 31000261#3 72354165#1 4726783#0 4726783#1 72354204#1 620499401 611094394#0 611094394#1 -4726795 -47007889 -108915782#2 33199416#8 33199416#7 33199416#6 -22780112#0 -22780112#1 -22780113"/>
    </person>
    <person id="ped4" type="ped_pedestrian" depart="3.20">
        <walk edges="-922461892 146902430#1 23187673#0 172186756#0 595002498#0" busStop="54142977"/> <!-- Heideblick -->
        <ride busStop="2525484873" lines="1:3" intended="pt_tram_1:3.0" depart="255.00"/> <!-- Lincolnsiedlung -->
        <walk edges="597760636 597760627#1 597760605#1 329086274#2 597760633#5 166633923#2 222336041#1 222336041#2" busStop="1780723613"/> <!-- Lincolnsiedlung -->
        <ride busStop="2310890289" lines="464:0" intended="pt_bus_464:0.1" depart="763.00"/> <!-- Am Platz -->
        <walk edges="30253923 -5640228#5 -119038971"/>
    </person>
    <person id="ped5" type="ped_pedestrian" depart="4.00">
        <walk edges="-405563772#0 405563772#1 -53026095#0 543235784#1 543235784#0 394037102#0" busStop="54143135"/> <!-- Nordhoffstraße -->
        <ride busStop="333148451" lines="1:1" intended="pt_tram_1:1.0" depart="380.00"/> <!-- Hansestraße Ost -->
        <walk edges="120991989#0" busStop="367019365"/> <!-- Hansestraße Ost -->
        <ride busStop="1355332139" lines="484:3" intended="pt_bus_484:3.0" depart="603.00"/> <!-- Kanalbrücke -->
        <walk edges="307704875#13 307704875#12 -10571561#2 -10571561#3 -10571561#4 -10571561#5 -10571561#6 -10571561#7 177075752#1 -177075752#0 177075736#2"/>
    </person>
    <person id="ped6" type="ped_pedestrian" depart="4.80">
        <walk edges="-119011208 -24323978#6 -24323978#7 -610163862 5640245#0 -4729000#2 -4729000#1" busStop="-333697507"/> <!-- Am Berge -->
        <ride busStop="2313104483" lines="424:1" intended="pt_bus_424:1" depart="512.00"/> <!-- Lincolnsiedlung -->
        <walk edges="625075010#1 329086274#2 597760633#5 166633923#2 222336041#1 222336041#2" busStop="1780723613"/> <!-- Lincolnsiedlung -->
        <ride busStop="4112385563" lines="484:3" intended="pt_bus_484:3.1" depart="1075.00"/> <!-- Adam-Opel-Straße -->
        <walk edges="166359011#1 511308658#0 307704876#1 -36906412#3 36906412#2 -36906412#1 -36906408#1"/>
    </person>
    <person id="ped7" type="ped_pedestrian" depart="5.60">
        <walk edges="32960823#0 598484328#2 598484329#0 -4747574#2 -4747574#4 -4743166 4743301#2 597760654 394021563#2 597760644#1 222336041#2" busStop="1780723613"/> <!-- Lincolnsiedlung -->
        <ride busStop="4112383490" lines="484:3" intended="pt_bus_484:3.0" depart="475.00"/> <!-- Benzstraße -->
        <walk edges="511308710#1 4764219#1 4764219#2 191883904#0 198020699#1 198020699#0 -23186941#9 23186941#8"/>
    </person>
    <person id="ped8" type="ped_pedestrian" depart="6.40">
        <walk edges="-405563779 32961789 901269206#0 901269206#1 4726782#0 4726782#1 4726782#3 457873375#3 4726782#5 53026047#1 53026047#2 10750085#4 10750085#5 10750085#6 10750085#7" busStop="4539379534"/> <!-- Sandanger -->
        <ride busStop="4103284302" lines="414:1" intended="pt_bus_414:1.1" depart="926.00"/> <!-- Ernst-Böhme-Straße -->
        <walk edges="82457821#1 511308639#0 511308639#1 307704875#0 307704875#1" busStop="269320278"/> <!-- Hansestraße Mitte -->
        <ride busStop="4393385968" lines="484:3" intended="pt_bus_484:3.1" depart="1697.00"/> <!-- Gewerbegebiet Waller See (West) -->
        <walk edges="278491962#10 278491962#9 278491962#8 278491962#7"/>
    </person>
    <person id="ped9" type="ped_pedestrian" depart="7.20">
        <walk edges="543270819#0 543270816#2 543270816#1 543270816#0 876206003 876206001#0" busStop="54143083"/> <!-- Lincolnsiedlung -->
        <ride busStop="2525484930" lines="10:1" intended="pt_tram_10:1.0" depart="349.00"/> <!-- Carl-Miele-Straße -->
        <walk edges="180678256#3" busStop="54153340"/> <!-- Carl-Miele-Straße -->
        <ride busStop="54143015" lines="1:1" intended="pt_tram_1:1.0" depart="625.00"/> <!-- Geibelstraße -->
        <walk edges="-32548138 -10903770#4 -11014597 10426710#5 -10426710#4"/>
    </person>
    <person id="ped10" type="ped_pedestrian" depart="8.00">
        <walk edges="543197952#1 -543197952#0 4829962#4 4829962#3 4829962#2 4829962#1 4829962#0 -4764512#12 -4764512#13" busStop="-269321181"/> <!-- Pillmannstraße -->
        <ride busStop="4112383489" lines="484:0" intended="pt_bus_484:0" depart="423.00"/> <!-- Benzstraße -->
        <walk edges="166445410#0 166445409#1 511308675 511308694#0" busStop="343692301"/> <!-- Daimlerstraße -->
        <ride busStop="2313104483" lines="484:0" intended="pt_bus_484:0" depart="1176.00"/> <!-- Lincolnsiedlung -->
        <walk edges="625075010#1 329086274#2 597760633#5 166633923#2 222336041#1 222336041#2" busStop="1780723613"/> <!-- Lincolnsiedlung -->
        <ride busStop="2310890289" lines="424:5" intended="pt_bus_424:5.2" depart="1603.00"/> <!-- Am Platz -->
        <walk edges="30253923 -5640228#5 -5640228#4 -5640228#3 -5640228#2 -5640228#1 -5640228#0 24323955 -385089519 388529947#0"/>
    </person>
    <person id="ped11" type="ped_pedestrian" depart="8.80">
        <walk edges="-711248904#0 -728098170 7016579#3 7016579#4 7016579#5 7016579#6 7016579#7 7016579#8 7016579#9 31000149" busStop="4103294756"/> <!-- Heesfeld -->
        <ride busStop="-4103249696" lines="414:0" intended="pt_bus_414:0.0" depart="432.00"/> <!-- Dreisch -->
        <walk edges="-173759898#0 -47291034#3 -47291034#2 47291034#1 -31017440#0 -31017442"/>
    </person>
    <person id="ped12" type="ped_pedestrian" depart="9.60">
        <walk edges="807136738#0 4764217#0 -4764216#4 -4764216#5 4764216#6 4764216#8 166445403#0 191883896#1 166445409#1 4764219#1 4764219#2 191883904#0 198020699#1 198020699#0 -23186941#9 -23186941#8 -23186941#7 -23186941#4 -23186941#3 -23186941#2 -23186941#1 23186940#1 70545348#2 -70545348#1 -33519353 33519345#0 -33519345#1 -33519205#1 -33519205#2 173759898#1 173759898#2 173759898#3 173759898#4 82457818#0 82457818#1 82457818#2 -24787109#17 -24787109#15 -24787109#12 -70908411#0 -70908411#1"/>
    </person>
    <person id="ped13" type="ped_pedestrian" depart="10.40">
        <walk edges="-23186942#4 -23186943 191883904#1 191883904#0 4764219#2 4764219#1 -511308619#0 -4764215#10 -4764215#8 -4764215#7 -4764215#6 -4764215#5 -4764215#4 -4764215#3 -4764215#2 -4764215#1 -180678256#3" busStop="2525484930"/> <!-- Carl-Miele-Straße -->
        <ride busStop="2525484946" lines="1:5" intended="pt_tram_1:5.0" depart="778.00"/> <!-- Nordhoffstraße -->
        <walk edges="299911659#1 299911659#0 4752213 511175443#0 511175443#1 511175443#2 13884035#0 -23187850#0 -23187851"/>
    </person>
    <person id="ped14" type="ped_pedestrian" depart="11.20">
        <walk edges="598484335#0 -4743059#1 -4743059#0 4747570#1 4747570#2 24787905#1 -289148517 289024148"/>
    </person>
    <person id="ped15" type="ped_pedestrian" depart="12.00">
        <walk edges="543235787#1 543235786 394037102#2" busStop="54143135"/> <!-- Nordhoffstraße -->
        <ride busStop="54143083" lines="10:1" intended="pt_tram_10:1.0" depart="159.00"/> <!-- Lincolnsiedlung -->
        <walk edges="597760644#1 222336041#2" busStop="1780723613"/> <!-- Lincolnsiedlung -->
        <ride busStop="-2310890309" lines="424:5" intended="pt_bus_424:5.0" depart="403.00"/> <!-- Pappelallee -->
        <walk edges="-5640229#5 -5640229#6 -321638052#1 414181870#1 414181870#0"/>
    </person>
    <person id="ped16" type="ped_pedestrian" depart="12.80">
        <walk edges="22780136 -22780139 22780140 -328670992#2 -7990943#0 -7990943#2 -7990943#3 -7990943#4 -7990943#6 -7990943#7 -7990943#8 -7990943#9 7990943#10 7990943#11 -611101980#3 -611101980#1 -33632887#0 33632887#1 -611101992#1 -611101993#0 -611101994#2 -43069523 -611101995#1 -25287000#0 -25287000#1 -25287000#2 -559199904 -222084468#13 -222084468#12 -222084468#11 -222084468#10 -222084468#9 -222084468#8 -222084468#7 -222084468#6 -222084468#5 -222084468#4 -222084468#3 -222084468#2 222084468#1 222084468#0 -4764512#9 -4764512#8 -4764512#7 -4764512#6 -4764512#5 -4764512#4 -4764512#3 -4764512#2" busStop="-269321182"/> <!-- Christian-Pommer-Straße -->
        <ride busStop="4112383489" lines="484:2" intended="pt_bus_484:2.3" depart="2482.00"/> <!-- Benzstraße -->
        <walk edges="166445410#0 166445409#1 511308675 511308694#0" busStop="343692301"/> <!-- Daimlerstraße -->
        <ride busStop="367019569" lines="484:2" intended="pt_bus_484:2.3" depart="3071.00"/> <!-- Hansestraße Ost -->
        <walk edges="85272780#3 191883898#0 543235794#0 543235791 543235790#1 543235789#1 543235788#5 821820347#3"/>
    </person>
    <person id="ped17" type="ped_pedestrian" depart="13.60">
        <walk edges="-7990947#0 7990943#6 7990943#7 7990943#8 7990943#9 7990943#10 7990943#11 -611101980#3 -611101980#1 -33632887#0 33632887#1 -611101992#1 -611101993#0 -611101994#2 -43069523 -611101995#1 -25287000#0 -25287000#1 -25287000#2 -559199904 -222084468#13 -222084468#12 -222084468#11 -222084468#10 -222084468#9 -222084468#8 -222084468#7 -222084468#6 -222084468#5 -222084468#4 -222084468#3 -222084468#2 222084468#1 222084468#0 -4764512#9 -4764512#8 -4764512#7 -4764512#6 -4764512#5 -4764512#4 -4764512#3 -4764512#2" busStop="-269321182"/> <!-- Christian-Pommer-Straße -->
        <ride busStop="4112383489" lines="484:1" intended="pt_bus_484:1.2" depart="2144.00"/> <!-- Benzstraße -->
        <walk edges="166445410#0 166445409#1 511308675 511308694#0" busStop="343692301"/> <!-- Daimlerstraße -->
        <ride busStop="367019569" lines="484:1" intended="pt_bus_484:1.2" depart="2751.00"/> <!-- Hansestraße Ost -->
        <walk edges="85272780#3 191883898#0 543235794#0 543235791 543235790#1 543235789#1 543235788#5 543235788#4 543235788#3 543235788#1 543272793 327664788#0 327664788#1 511175449#0 -511175443#0 511175443#1 511175443#2 13884035#0 13884035#1 23187852"/>
    </person>
    <person id="ped18" type="ped_pedestrian" depart="14.40">
        <walk edges="573269358 573269363#1 573269363#0 10426717 -10426710#0 -10426710#1 10426710#2 10426710#3 10426710#4 10426710#5 -11014597 -10903770#4 42791139#0" busStop="2525484928"/> <!-- Geibelstraße -->
        <ride busStop="2525484930" lines="1:5" intended="pt_tram_1:5.0" depart="676.00"/> <!-- Carl-Miele-Straße -->
        <walk edges="-180678256#3 -4764215#1 -4764215#2 -4764215#3 -4764215#4 -4764215#5 4764215#6 4764215#7 4764215#8 4764215#10 511308619#0 511308710#1 511308710#2 511308710#3 511308710#5 166359011#1" busStop="4112385563"/> <!-- Adam-Opel-Straße -->
        <ride busStop="269320278" lines="484:3" intended="pt_bus_484:3.1" depart="1542.00"/> <!-- Hansestraße Mitte -->
        <walk edges="307704875#1 307704875#3 307704875#4 307704875#5"/>
    </person>
    <person id="ped19" type="ped_pedestrian" depart="15.20">
        <walk edges="61425976#0 -61425970#0 -61425965#0 10903002#0 5640229#6 5640229#5" busStop="2310890299"/> <!-- Pappelallee -->
        <ride busStop="2313104483" lines="424:1" intended="pt_bus_424:1" depart="351.00"/> <!-- Lincolnsiedlung -->
        <walk edges="625075010#1 329086274#2 597760633#5 166633923#2 222336041#1 222336041#2" busStop="1780723613"/> <!-- Lincolnsiedlung -->
        <ride busStop="4112383490" lines="484:3" intended="pt_bus_484:3.1" depart="1075.00"/> <!-- Benzstraße -->
        <walk edges="511308710#1 511308710#2 511308710#3 511308710#5 23186940#2 23186940#1 70545348#2 -70545348#1 -33519353 33519345#0 -33519345#1 -33519205#1 -33519205#2 173759898#1" busStop="4103249697"/> <!-- Dreisch -->
        <ride busStop="4539379535" lines="414:1" intended="pt_bus_414:1.3" depart="2219.00"/> <!-- Wendener Weg -->
        <ride busStop="4539379536" lines="414:2" intended="pt_bus_414:2.3" depart="2332.00"/> <!-- Unter den Linden -->
        <walk edges="7016592#0 7016592#1 7016592#2 7016592#3 -7016592#4 -7016605#0 -7016605#1 -7016605#2 -7016605#3 -7016605#4 7016605#5 7016605#6 8166092#1 8166092#2 25378758#5 25378758#6 25378758#7 25378759#1"/>
    </person>
    <person id="ped21" type="ped_pedestrian" depart="16.80">
        <walk edges="-4304460#0 -4304460#1 -4304460#3 4304460#4 4304460#5 -53026056#0 405563765#11 -405563765#10 -405563765#9 -405563765#8 -405563765#7 405563765#6 -405563770#0 -405563770#1 -405563773#0 -405563773#1 53026097" busStop="-2525484946"/> <!-- Nordhoffstraße -->
        <walk edges="299911659#1" busStop="54143135"/> <!-- Nordhoffstraße -->
        <ride busStop="54143083" lines="1:1" intended="pt_tram_1:1.1" depart="980.00"/> <!-- Lincolnsiedlung -->
        <walk edges="597760644#1 222336041#2" busStop="1780723613"/> <!-- Lincolnsiedlung -->
        <ride busStop="-310417058" lines="464:0" intended="pt_bus_464:0.2" depart="1363.00"/> <!-- Im Steinkampe -->
        <walk edges="-173298393 4726357#0 4726357#1 4726357#2 -511175453 -32434373 -573269348#0 -573269348#1"/>
    </person>
    <person id="ped22" type="ped_pedestrian" depart="17.60">
        <walk edges="-222084468#11 -222084468#12 -222084468#13 -559199904 -25287000#2 -25287000#1 -25287000#0 -611101995#1 611101995#0 -71957578#10 -71957578#8 -71957578#6 -71957578#5 -71957578#4 -71957578#3 30649105 -25859687#2 25859687#1 -71957669#0 43106175#1 -43106175#0"/>
    </person>
    <person id="ped23" type="ped_pedestrian" depart="18.40">
        <walk edges="-238793070 -53025996#4 -53025996#3 -53025996#2 53025996#1 53025996#0 -287486769#0 543235784#1 543235784#0 394037102#0" busStop="54143135"/> <!-- Nordhoffstraße -->
        <ride busStop="333148451" lines="1:1" intended="pt_tram_1:1.0" depart="380.00"/> <!-- Hansestraße Ost -->
        <walk edges="120991989#0" busStop="367019365"/> <!-- Hansestraße Ost -->
        <ride busStop="4393385970" lines="484:3" intended="pt_bus_484:3.0" depart="603.00"/> <!-- Gewerbegebiet Waller See (Ost) -->
        <walk edges="278491962#27 -537950699#0"/>
    </person>
    <person id="ped24" type="ped_pedestrian" depart="19.20">
        <walk edges="32607614 13977479#3 13977478#0 13977478#1 -165764258#1 165764258#0 4743301#2 597760654 394021563#2 597760644#1 222336041#2" busStop="1780723613"/> <!-- Lincolnsiedlung -->
        <ride busStop="-269321180" lines="484:3" intended="pt_bus_484:3.0" depart="475.00"/> <!-- Carl-Giesecke-Straße -->
        <walk edges="-23170152#6 30918491#0 30918491#1 30918491#2 30918491#3 -307698862#0 -782019790#0"/>
    </person>
    <person id="ped25" type="ped_pedestrian" depart="20.00">
        <walk edges="-789746099 7002897#3 7002897#0 7002893 -4752456#0 -7002890#0 70564179#2 70564179#1 70564179#0 -70564177#0 -70564177#2 -70564177#3 -28220433#0 -28220433#1 -70794215#0 -59586560 -53818465#3 -53818465#2 -70545353#2 -70545358 -36914279#4 -36914279#1 511308724#2 511308724#1 511308724#0 511308706#1 511308706#0" busStop="4103379673"/> <!-- Hansestraße Mitte -->
        <ride busStop="4112383489" lines="484:1" intended="pt_bus_484:1.0" depart="1129.00"/> <!-- Benzstraße -->
        <walk edges="166445410#0 166445409#1 511308675 511308694#0 511308646#0 511308646#1 511308686 511308682 511315746 191883900 120991989#1 120991989#0" busStop="333148451"/> <!-- Hansestraße Ost -->
        <walk edges="-394024233"/>
    </person>
    <person id="ped26" type="ped_pedestrian" depart="20.80">
        <walk edges="-511308631 28672098#1 28672098#0 511308714#1 511308714#0 511308724#2 -36914279#1 -36914279#4 -70545358 -70545353#2 -53818465#2 -109872602 -71306685 -71306777#2 -71306777#1 7016618#1 7016618#0 173759898#4 173759898#3" busStop="4539379535"/> <!-- Wendener Weg -->
        <ride busStop="269321675" lines="414:2" intended="pt_bus_414:2.1" depart="1132.00"/> <!-- Heesfeld -->
        <walk edges="24787043 -4752455 -7016579#9 782900738"/>
    </person>
    <person id="ped27" type="ped_pedestrian" depart="21.60">
        <walk edges="32960736#4 32960736#5 32960736#6 10063131#3 10063131#2 4743192 -165764258#6 -165764258#5 -165764258#4 -165764258#3 -165764258#2 -165764258#1 165764258#0 4743301#2 876206001#0" busStop="54143083"/> <!-- Lincolnsiedlung -->
        <ride busStop="54153340" lines="1:2" intended="pt_tram_1:2.0" depart="719.00"/> <!-- Carl-Miele-Straße -->
        <walk edges="394019233#4 394019249#0 -4764215#1 -4764215#2 -4764215#3 -4764215#4 -4764215#5 4764215#6 4764215#7 4764215#8 4764215#10 511308619#0 511308710#1 511308710#2 511308710#3 511308710#5 307704876#2 307704876#1 32903756#0 511308662 511308724#6 511308724#5 511308724#4 -36914279#1 -36914279#4 -70545358 -70545353#2 -53818465#2 -53818465#3 -59586560 -70794215#0 -28220433#1 -28220433#0 70564177#3 70564177#2 70794211 70564180 -7002890#3 70573827#0 70573827#1 70573857#0 70573857#1 70573829#0 70573829#1 70908501#1 299068702#0"/>
    </person>
    <person id="ped28" type="ped_pedestrian" depart="22.40">
        <walk edges="-32961689#4 -32961689#5 -32961689#6 -32961689#7 4304460#6 -53026056#0 405563765#11 -405563765#10 -405563765#9 -405563765#8 -405563765#7 405563765#6 -405563770#0 -405563770#1 -405563773#0 -405563773#1 53026097" busStop="-2525484946"/> <!-- Nordhoffstraße -->
        <walk edges="299911659#1" busStop="54143135"/> <!-- Nordhoffstraße -->
        <ride busStop="54142977" lines="1:4" intended="pt_tram_1:4.0" depart="750.00"/> <!-- Heideblick -->
        <walk edges="23187673#1 -181836164#0 32433933#5 32433934 41376838#0"/>
    </person>
    <person id="ped29" type="ped_pedestrian" depart="23.20">
        <walk edges="-327664751#2 543273841 543273842 543273843#0 543273844 543273845 543273846#1 543273847 511175446#0 327664791#1 299911659#1" busStop="54143135"/> <!-- Nordhoffstraße -->
        <ride busStop="333148451" lines="1:2" intended="pt_tram_1:2.0" depart="565.00"/> <!-- Hansestraße Ost -->
        <walk edges="120991989#0" busStop="367019365"/> <!-- Hansestraße Ost -->
        <ride busStop="4112383490" lines="484:6" intended="pt_bus_484:6.0" depart="784.00"/> <!-- Benzstraße -->
        <walk edges="511308710#1 511308710#2 511308710#3 511308710#5 23186940#2 23186940#1 70545348#2 -70545348#1 -33519353 33519345#0 -33519345#1 -33519205#1 -33519205#2 173759898#1" busStop="4103249697"/> <!-- Dreisch -->
        <ride busStop="4103297697" lines="414:6" intended="pt_bus_414:6.2" depart="1739.00"/> <!-- Waller Weg -->
        <walk edges="31000150#2 625070025#1 71957592 7016576#5 800990621 -800990621"/>
    </person>
    <person id="ped30" type="ped_pedestrian" depart="24.00">
        <walk edges="856427797#0 -4764216#2 -4764216#3 4764216#4 4764216#5 4764214#0 4764214#1 4764215#6 4764215#7 4764215#8 4764215#10 511308619#0 511308710#1 511308710#2 511308710#3 511308710#5 166359011#1" busStop="4112385563"/> <!-- Adam-Opel-Straße -->
        <ride busStop="4393374269" lines="484:3" intended="pt_bus_484:3.0" depart="942.00"/> <!-- Christian-Pommer-Straße -->
        <walk edges="4764512#2 4764512#1 4764512#0 -30918490#0 30918490#1 172476416#1 327664783#0"/>
    </person>
    <person id="ped31" type="ped_pedestrian" depart="24.80">
        <walk edges="238793073#0 -53025996#7 -287486769#1 -287486769#0 543235784#1 543235784#0 394037102#0" busStop="54143135"/> <!-- Nordhoffstraße -->
        <ride busStop="333148451" lines="1:1" intended="pt_tram_1:1.0" depart="380.00"/> <!-- Hansestraße Ost -->
        <walk edges="120991989#0" busStop="367019365"/> <!-- Hansestraße Ost -->
        <ride busStop="343692298" lines="484:3" intended="pt_bus_484:3.0" depart="603.00"/> <!-- Daimlerstraße -->
        <walk edges="511308690 409326917 -36892276#4 36893233#4 36893233#3 36893233#2 36893233#1 -166445413#0 23186957#7 -36892907#3 36893232#3"/>
    </person>
    <person id="ped32" type="ped_pedestrian" depart="25.60">
        <walk edges="598484318 32960827#0 32960478 598484322#2 598484327#1 -611101999#4 -4743048#1 -4743048#2 -4743048#3 -598484335#1 543270825#1 30918489#2 511175445#2"/>
    </person>
    <person id="ped33" type="ped_pedestrian" depart="26.40">
        <walk edges="-43065198 -25921997#2 -25921997#1 307704875#16 -43154545#0 -43154548#4 -35098427 -25287000#0 -611101995#1 -43069523 -611101994#2 -611101993#0 -611101992#1 33632887#1 -33632887#0 -611101980#1 -611101980#3 7990943#11 28221298 119136514 119136531 -119136535#0"/>
    </person>
    <person id="ped34" type="ped_pedestrian" depart="27.20">
        <walk edges="-7002897#6 -43065198 -25921997#2 -25921997#1 307704875#16 24786911#1 23170149 4764512#0 4764512#1 4764512#2 -519581924#1"/>
    </person>
    <person id="ped35" type="ped_pedestrian" depart="28.00">
        <walk edges="-40446104#0 11014602#4 11014602#3 11014602#2 11014602#1 657618384 10750085#7" busStop="4539379534"/> <!-- Sandanger -->
        <ride busStop="4103284302" lines="414:1" intended="pt_bus_414:1.0" depart="326.00"/> <!-- Ernst-Böhme-Straße -->
        <walk edges="82457821#1 511308639#0 511308639#1 307704875#0 307704875#1" busStop="269320278"/> <!-- Hansestraße Mitte -->
        <ride busStop="4393374270" lines="484:3" intended="pt_bus_484:3.0" depart="1097.00"/> <!-- Pillmannstraße -->
        <walk edges="4764512#13 -4764512#12 4829962#0 4829962#1 4829962#2 4829962#3 798225040#0"/>
    </person>
    <person id="ped36" type="ped_pedestrian" depart="28.80">
        <walk edges="7016576#1 -24787109#0 -24787109#1 -24787109#3 -24787109#4 -24787109#5 -24787109#7 -24787109#8 -24787109#9 -70908411#0 -70908411#1 -70908411#2 28220821#0 -28220821#1 70908501#2 70908501#1 70573829#1 70573829#0 70573857#1 70573857#0 70573827#1 70573827#0 -7002890#3"/>
    </person>
    <person id="ped37" type="ped_pedestrian" depart="29.60">
        <walk edges="33199416#2 22780602#1 7990946#0 -814995800 -7990947#1 -7990947#0 7990943#6 7990943#7 7990943#8 7990943#9 7990943#10 7990943#11 -611101980#3 -611101980#1 -33632887#0 33632887#1 -611101992#1 -611101993#0 -611101994#2 -43069523 -611101995#1 -25287000#0 -25287000#1 -25287000#2 -4764514#10 -4764514#9 -4829962#4 -4829962#3 -4829962#2 -4829962#1 -4829962#0 4764512#12 4764512#13" busStop="4393374270"/> <!-- Pillmannstraße -->
        <ride busStop="-269321183" lines="484:6" intended="pt_bus_484:6.1" depart="2147.00"/> <!-- Hansestraße West -->
        <walk edges="-23170152#0 -777668846#3 -817154916"/>
    </person>
    <person id="ped38" type="ped_pedestrian" depart="30.40">
        <walk edges="71306688 71306685 71306777#2 71306777#1 7016618#1 7016618#0 173759898#4 173759898#3" busStop="4539379535"/> <!-- Wendener Weg -->
        <ride busStop="4539379536" lines="414:2" intended="pt_bus_414:2.0" depart="532.00"/> <!-- Unter den Linden -->
        <walk edges="7016592#0 7016601 31000261#0 31000261#1 31000261#2 31000261#3 72354165#1 4726783#0 4726783#1 72354204#1 620499401 611094394#0 611094394#1 -4726795 -47007889 -108915782#2" busStop="1845907223"/> <!-- Schlesierweg -->
        <walk edges="-119136523#1 119136535#0"/>
    </person>
    <person id="ped40" type="ped_pedestrian" depart="32.00">
        <walk edges="24323970 30253922#7 30253922#8 -24323978#3 -24323978#5 -24323978#6 -24323978#7 -610163862 5640245#0 -4729000#2 -4729000#1" busStop="-333697507"/> <!-- Am Berge -->
        <ride busStop="2313104483" lines="424:1" intended="pt_bus_424:1" depart="512.00"/> <!-- Lincolnsiedlung -->
        <walk edges="625075010#1 597760605#1 597760627#1 597760636" busStop="2525484873"/> <!-- Lincolnsiedlung -->
        <ride busStop="333148448" lines="1:5" intended="pt_tram_1:5.0" depart="881.00"/> <!-- Hansestraße Ost -->
        <walk edges="24710789#3 24710789#2 543235789#1 543235792 543235793#0 30918489#2 -486150359#1"/>
    </person>
    <person id="ped41" type="ped_pedestrian" depart="32.80">
        <walk edges="264161733 970272083 -25378755#1 25378756 -30918491#1 -30918491#0 -4764512#22 -4764512#21 -4764512#20 -4764512#19 -4764512#17 -4764512#16 -4764512#15 -4764512#14 -4764512#13" busStop="-269321181"/> <!-- Pillmannstraße -->
        <ride busStop="4103379673" lines="484:1" intended="pt_bus_484:1.0" depart="858.00"/> <!-- Hansestraße Mitte -->
        <walk edges="511308706#0 511308706#1 511308724#0 511308724#1 511308724#2 -36914279#1 -36914279#4 -70545358 -70545353#2 -53818465#2 -53818465#3 -59586560 -70794215#0 -28220433#1 -28220433#0 70564177#3 70564177#2 70794211 70564180 -7002890#3 70573827#0 70573827#1 70573857#0 70573857#1 899983663#0 899983663#1 70908501#0"/>
    </person>
    <person id="ped42" type="ped_pedestrian" depart="33.60">
        <walk edges="-818639841 11014602#2 11014602#3 11014602#4 -40446104#0 40446104#1 239272668 -327664755#1 327664755#0 28672230#0 148863925" busStop="333148448"/> <!-- Hansestraße Ost -->
        <ride busStop="2525484946" lines="1:5" intended="pt_tram_1:5.0" depart="998.00"/> <!-- Nordhoffstraße -->
        <walk edges="53026097 -405563774"/>
    </person>
    <person id="ped43" type="ped_pedestrian" depart="34.40">
        <walk edges="938823647#0 -180678256#4 4764215#1 4764215#2 4764215#3 4764215#4 4764215#5 4764215#6 4764215#7 4764215#8 4764215#10 511308619#0 511308710#1 511308710#2 511308710#3 511308710#5 166359011#1" busStop="4112385563"/> <!-- Adam-Opel-Straße -->
        <ride busStop="269320278" lines="484:3" intended="pt_bus_484:3.0" depart="942.00"/> <!-- Hansestraße Mitte -->
        <walk edges="307704875#1 -176977379#0 -176977381#1 -176977381#0 -176977382#2 177075756#0"/>
    </person>
    <person id="ped44" type="ped_pedestrian" depart="35.20">
        <walk edges="-23170152#6 4764512#22 4764512#21 4764512#20 4764512#19 -4764512#17 -4764512#16 -4764512#15 -4764512#14 -4764512#13" busStop="-269321181"/> <!-- Pillmannstraße -->
        <ride busStop="4112383489" lines="484:0" intended="pt_bus_484:0" depart="423.00"/> <!-- Benzstraße -->
        <walk edges="166445410#0 166445409#1 511308675 511308694#0" busStop="343692301"/> <!-- Daimlerstraße -->