<?xml version='1.0' encoding='utf-8'?>
<configuration>
	<input>
		<net-file value="data/Wildau/Netzmodell2.net.xml" />
		<route-files value="data/Wildau/flows_SUMOV2.2.rou.xml" />
		<gui-settings-file value="data/Wildau/settings.xml" />
		
	</input>
	<time>
		<begin value="53990" />
		<end value="61000" />
	</time>
</configuration>